
#######################################################################
#
#                 Cambridge Crystallographic Data Centre
#                                CCDC 
#
#######################################################################
#
# If this CIF has been generated from an entry in the Cambridge 
# Structural Database, then it will include bibliographic, chemical, 
# crystal, experimental, refinement or atomic coordinate data resulting 
# from the CCDC's data processing and validation procedures.
#
#######################################################################

data_QAJPAV
_symmetry_cell_setting           monoclinic
_symmetry_space_group_name_H-M   'C 2/c'
_symmetry_Int_Tables_number      15
_space_group_name_Hall           '-C 2yn'
loop_
_symmetry_equiv_pos_site_id
_symmetry_equiv_pos_as_xyz
1 x,y,z
2 -x,y,1/2-z
3 1/2+x,1/2+y,z
4 1/2-x,1/2+y,1/2-z
5 -x,-y,-z
6 x,-y,1/2+z
7 1/2-x,1/2-y,-z
8 1/2+x,1/2-y,1/2+z
_cell_length_a                   15.3346(19)
_cell_length_b                   3.6746(5)
_cell_length_c                   19.146(2)
_cell_angle_alpha                90
_cell_angle_beta                 104.991(7)
_cell_angle_gamma                90
_cell_volume                     1042.13
loop_
_atom_site_label
_atom_site_type_symbol
_atom_site_fract_x
_atom_site_fract_y
_atom_site_fract_z
O1 O 0.24020(8) 0.4449(4) 0.41794(7)
O2 O 0.36030(9) 0.1903(4) 0.49395(7)
C1 C 0.33564(11) 0.5383(5) 0.31322(9)
H1 H 0.2744 0.6152 0.3019
C2 C 0.37644(11) 0.4014(4) 0.38182(9)
C3 C 0.46711(12) 0.3051(5) 0.39951(9)
H2 H 0.4955 0.2184 0.4466
C4 C 0.51621(11) 0.3360(5) 0.34804(9)
H3 H 0.5785 0.2739 0.3605
C5 C 0.38404(11) 0.5628(5) 0.26142(10)
H4 H 0.3556 0.6513 0.2144
C6 C 0.32092(11) 0.3469(5) 0.43382(9)
C7 C 0.47488(12) 0.4573(5) 0.27832(9)
H5 H 0.319(3) 0.143(11) 0.518(2)
O1A O 0.75980(8) 0.4449(4) 0.08206(7)
O2A O 0.63970(9) 0.1903(4) 0.00605(7)
C1A C 0.66436(11) 0.5383(5) 0.18678(9)
H1A H 0.7256 0.6152 0.1981
C2A C 0.62356(11) 0.4014(4) 0.11818(9)
C3A C 0.53289(12) 0.3051(5) 0.10049(9)
H2A H 0.5045 0.2184 0.0534
C4A C 0.48379(11) 0.3360(5) 0.15196(9)
H3A H 0.4215 0.2739 0.1395
C5A C 0.61596(11) 0.5628(5) 0.23858(10)
H4A H 0.6444 0.6513 0.2856
C6A C 0.67908(11) 0.3469(5) 0.06618(9)
C7A C 0.52512(12) 0.4573(5) 0.22168(9)
H5A H 0.681(3) 0.143(11) -0.018(2)
O1 O -0.25980(8) 0.9449(4) 0.41794(7)
O2 O -0.13970(9) 0.6903(4) 0.49395(7)
C1 C -0.16436(11) 1.0383(5) 0.31322(9)
H1 H -0.2256 1.1152 0.3019
C2 C -0.12356(11) 0.9014(4) 0.38182(9)
C3 C -0.03289(12) 0.8051(5) 0.39951(9)
H2 H -0.0045 0.7184 0.4466
C4 C 0.01621(11) 0.8360(5) 0.34804(9)
H3 H 0.0785 0.7739 0.3605
C5 C -0.11596(11) 1.0628(5) 0.26142(10)
H4 H -0.1444 1.1513 0.2144
C6 C -0.17908(11) 0.8469(5) 0.43382(9)
C7 C -0.02512(12) 0.9573(5) 0.27832(9)
H5 H -0.181(3) 0.643(11) 0.518(2)
O1A O 0.25980(8) 0.9449(4) 0.08206(7)
O2A O 0.13970(9) 0.6903(4) 0.00605(7)
C1A C 0.16436(11) 1.0383(5) 0.18678(9)
H1A H 0.2256 1.1152 0.1981
C2A C 0.12356(11) 0.9014(4) 0.11818(9)
C3A C 0.03289(12) 0.8051(5) 0.10049(9)
H2A H 0.0045 0.7184 0.0534
C4A C -0.01621(11) 0.8360(5) 0.15196(9)
H3A H -0.0785 0.7739 0.1395
C5A C 0.11596(11) 1.0628(5) 0.23858(10)
H4A H 0.1444 1.1513 0.2856
C6A C 0.17908(11) 0.8469(5) 0.06618(9)
C7A C 0.02512(12) 0.9573(5) 0.22168(9)
H5A H 0.181(3) 0.643(11) -0.018(2)
O1 O 0.74020(8) 0.9449(4) 0.41794(7)
O2 O 0.86030(9) 0.6903(4) 0.49395(7)
C1 C 0.83564(11) 1.0383(5) 0.31322(9)
H1 H 0.7744 1.1152 0.3019
C2 C 0.87644(11) 0.9014(4) 0.38182(9)
C3 C 0.96711(12) 0.8051(5) 0.39951(9)
H2 H 0.9955 0.7184 0.4466
C4 C 1.01621(11) 0.8360(5) 0.34804(9)
H3 H 1.0785 0.7739 0.3605
C5 C 0.88404(11) 1.0628(5) 0.26142(10)
H4 H 0.8556 1.1513 0.2144
C6 C 0.82092(11) 0.8469(5) 0.43382(9)
C7 C 0.97488(12) 0.9573(5) 0.27832(9)
H5 H 0.819(3) 0.643(11) 0.518(2)
O1A O 1.25980(8) 0.9449(4) 0.08206(7)
O2A O 1.13970(9) 0.6903(4) 0.00605(7)
C1A C 1.16436(11) 1.0383(5) 0.18678(9)
H1A H 1.2256 1.1152 0.1981
C2A C 1.12356(11) 0.9014(4) 0.11818(9)
C3A C 1.03289(12) 0.8051(5) 0.10049(9)
H2A H 1.0045 0.7184 0.0534
C4A C 0.98379(11) 0.8360(5) 0.15196(9)
H3A H 0.9215 0.7739 0.1395
C5A C 1.11596(11) 1.0628(5) 0.23858(10)
H4A H 1.1444 1.1513 0.2856
C6A C 1.17908(11) 0.8469(5) 0.06618(9)
C7A C 1.02512(12) 0.9573(5) 0.22168(9)
H5A H 1.181(3) 0.643(11) -0.018(2)
O1 O 0.75980(8) 0.5551(4) 0.58206(7)
O2 O 0.63970(9) 0.8097(4) 0.50605(7)
C1 C 0.66436(11) 0.4617(5) 0.68678(9)
H1 H 0.7256 0.3848 0.6981
C2 C 0.62356(11) 0.5986(4) 0.61818(9)
C3 C 0.53289(12) 0.6949(5) 0.60049(9)
H2 H 0.5045 0.7816 0.5534
C4 C 0.48379(11) 0.6640(5) 0.65196(9)
H3 H 0.4215 0.7261 0.6395
C5 C 0.61596(11) 0.4372(5) 0.73858(10)
H4 H 0.6444 0.3487 0.7856
C6 C 0.67908(11) 0.6531(5) 0.56618(9)
C7 C 0.52512(12) 0.5427(5) 0.72168(9)
H5 H 0.681(3) 0.857(11) 0.482(2)
O1A O 0.24020(8) 0.5551(4) 0.91794(7)
O2A O 0.36030(9) 0.8097(4) 0.99395(7)
C1A C 0.33564(11) 0.4617(5) 0.81322(9)
H1A H 0.2744 0.3848 0.8019
C2A C 0.37644(11) 0.5986(4) 0.88182(9)
C3A C 0.46711(12) 0.6949(5) 0.89951(9)
H2A H 0.4955 0.7816 0.9466
C4A C 0.51621(11) 0.6640(5) 0.84804(9)
H3A H 0.5785 0.7261 0.8605
C5A C 0.38404(11) 0.4372(5) 0.76142(10)
H4A H 0.3556 0.3487 0.7144
C6A C 0.32092(11) 0.6531(5) 0.93382(9)
C7A C 0.47488(12) 0.5427(5) 0.77832(9)
H5A H 0.319(3) 0.857(11) 1.018(2)
O1 O 0.25980(8) 0.0551(4) 0.58206(7)
O2 O 0.13970(9) 0.3097(4) 0.50605(7)
C1 C 0.16436(11) -0.0383(5) 0.68678(9)
H1 H 0.2256 -0.1152 0.6981
C2 C 0.12356(11) 0.0986(4) 0.61818(9)
C3 C 0.03289(12) 0.1949(5) 0.60049(9)
H2 H 0.0045 0.2816 0.5534
C4 C -0.01621(11) 0.1640(5) 0.65196(9)
H3 H -0.0785 0.2261 0.6395
C5 C 0.11596(11) -0.0628(5) 0.73858(10)
H4 H 0.1444 -0.1513 0.7856
C6 C 0.17908(11) 0.1531(5) 0.56618(9)
C7 C 0.02512(12) 0.0427(5) 0.72168(9)
H5 H 0.181(3) 0.357(11) 0.482(2)
O1A O -0.25980(8) 0.0551(4) 0.91794(7)
O2A O -0.13970(9) 0.3097(4) 0.99395(7)
C1A C -0.16436(11) -0.0383(5) 0.81322(9)
H1A H -0.2256 -0.1152 0.8019
C2A C -0.12356(11) 0.0986(4) 0.88182(9)
C3A C -0.03289(12) 0.1949(5) 0.89951(9)
H2A H -0.0045 0.2816 0.9466
C4A C 0.01621(11) 0.1640(5) 0.84804(9)
H3A H 0.0785 0.2261 0.8605
C5A C -0.11596(11) -0.0628(5) 0.76142(10)
H4A H -0.1444 -0.1513 0.7144
C6A C -0.17908(11) 0.1531(5) 0.93382(9)
C7A C -0.02512(12) 0.0427(5) 0.77832(9)
H5A H -0.181(3) 0.357(11) 1.018(2)
O1 O 1.25980(8) 0.0551(4) 0.58206(7)
O2 O 1.13970(9) 0.3097(4) 0.50605(7)
C1 C 1.16436(11) -0.0383(5) 0.68678(9)
H1 H 1.2256 -0.1152 0.6981
C2 C 1.12356(11) 0.0986(4) 0.61818(9)
C3 C 1.03289(12) 0.1949(5) 0.60049(9)
H2 H 1.0045 0.2816 0.5534
C4 C 0.98379(11) 0.1640(5) 0.65196(9)
H3 H 0.9215 0.2261 0.6395
C5 C 1.11596(11) -0.0628(5) 0.73858(10)
H4 H 1.1444 -0.1513 0.7856
C6 C 1.17908(11) 0.1531(5) 0.56618(9)
C7 C 1.02512(12) 0.0427(5) 0.72168(9)
H5 H 1.181(3) 0.357(11) 0.482(2)
O1A O 0.74020(8) 0.0551(4) 0.91794(7)
O2A O 0.86030(9) 0.3097(4) 0.99395(7)
C1A C 0.83564(11) -0.0383(5) 0.81322(9)
H1A H 0.7744 -0.1152 0.8019
C2A C 0.87644(11) 0.0986(4) 0.88182(9)
C3A C 0.96711(12) 0.1949(5) 0.89951(9)
H2A H 0.9955 0.2816 0.9466
C4A C 1.01621(11) 0.1640(5) 0.84804(9)
H3A H 1.0785 0.2261 0.8605
C5A C 0.88404(11) -0.0628(5) 0.76142(10)
H4A H 0.8556 -0.1513 0.7144
C6A C 0.82092(11) 0.1531(5) 0.93382(9)
C7A C 0.97488(12) 0.0427(5) 0.77832(9)
H5A H 0.819(3) 0.357(11) 1.018(2)
H6? H 0.202(6) 0.37(2) 0.449(4)
H6? H 0.798(6) 0.37(2) 0.051(4)
H6? H 0.702(6) 0.87(2) 0.449(4)
H6? H 0.298(6) 0.87(2) 0.051(4)
H6? H 0.798(6) 0.63(2) 0.551(4)
H6? H 0.202(6) 0.63(2) 0.949(4)
H6? H 0.298(6) 0.13(2) 0.551(4)
H6? H 0.702(6) 0.13(2) 0.949(4)

#END
