data_hxl_UiO-67_Hf
#structure generated by DFT optimisation

_pd_phase_name                         'hxl UiO-67(Hf)'
_cell_length_a                         19.00050
_cell_length_b                         19.00050
_cell_length_c                         24.48840
_cell_angle_alpha                      90
_cell_angle_beta                       90
_cell_angle_gamma                      120
_symmetry_cell_setting                 'hexagonal' 
_symmetry_space_group_name_H-M         'P 63/mmc'
_symmetry_Int_Tables_number            194
_symmetry_space_group_name_Hall        '-P 6c 2c'


_chemical_formula_sum             'C45 H34 Hf6 O29'
_chemical_formula_moiety          'C45 H34 Hf6 O29'
_chemical_formula_weight           2109.66

loop_
_symmetry_equiv_pos_as_xyz
   'x, y, z'
   '-x, -y, -z'
   '-y, x-y, z'
   'y, -x+y, -z'
   '-x+y, -x, z'
   'x-y, x, -z'
   '-x, -y, z+1/2'
   'x, y, -z+1/2'
   'y, -x+y, z+1/2'
   '-y, x-y, -z+1/2'
   'x-y, x, z+1/2'
   '-x+y, -x, -z+1/2'
   'y, x, -z'
   '-y, -x, z'
   'x-y, -y, -z'
   '-x+y, y, z'
   '-x, -x+y, -z'
   'x, x-y, z'
   '-y, -x, -z+1/2'
   'y, x, z+1/2'
   '-x+y, y, -z+1/2'
   'x-y, -y, z+1/2'
   'x, x-y, -z+1/2'
   '-x, -x+y, z+1/2'
   
loop_
   _atom_site_label
   _atom_site_type_symbol
   _atom_site_occupancy
   _atom_site_fract_x
   _atom_site_fract_y
   _atom_site_fract_z
      H01    H  1.0000      0.2344    0.4688    0.8346
      H02    H  1.0000      0.6667    0.3333    0.5219
      H03    H  1.0000      0.0320    0.4187    0.3218
      H04    H  1.0000      0.2572    0.4183    0.3233
      H05    H  1.0000      0.1781    0.9252    0.4606
      H06    H  1.0000      0.7447    0.0542    0.4581
      H07    H  1.0000      0.8360    0.3073    0.2500
      H08    H  1.0000      0.4376    0.8752    0.4382
      C01    C  1.0000      0.6635    0.0188    0.3897
      C02    C  1.0000      0.6647    0.8711    0.3919
      C03    C  1.0000      0.9576    0.3401    0.8520
      C04    C  1.0000      0.3818    0.2670    0.6467
      C05    C  1.0000      0.2963    0.2902    0.0715
      C06    C  1.0000      0.9334    0.2230    0.9296
      C07    C  1.0000      0.4149    0.8299    0.4719
      C08    C  1.0000      0.4329    0.0968    0.1127
      O01    O  1.0000      0.1053    0.6228    0.6506
      O02    O  1.0000      0.3333    0.6667    0.6922
      O03    O  1.0000      0.3851    0.7701    0.5934
      O04    O  1.0000      0.3333    0.6667    0.5181
      O05    O  1.0000      0.5266    0.2633    0.3443
      O06    O  1.0000      0.1802    0.6513    0.7500
      O07    O  1.0000      0.7072    0.1505    0.4228
      O08    O  1.0000      0.3434    0.8070    0.4887
     Hf01    Hf 1.0000      0.7279    0.2721    0.0592
     Hf02    Hf 1.0000      0.7928    0.3964    0.3228      
 
 
 
 
 
 
 
 
 
 
 
 
 
 
 
 
 
 
 
 
 
 
 
 
 
 
 
 
 
 
 
 
 
 
 
 
 
 
 
 
 
 
 
 
 
 
 
 
 
 
 
 
 
 
 
 
 
 
 
 
 
 
 
 
 
 
 
 
 
 
 
 
 
 
 
 
 
 
 
 
 
 
 
 
 
 
 
 
 
 
 
 
 
 
 
 
 
 
 
 
 
 
 
 
 
 
 
 
 
 
 
 
 
 
 
 
 
 
 
 
 
 
 
 
 
 
 
 
 
 
 
 
 
 
 
 
 
 
 
 
 
 
 
 
 
 
 
 
 
 
 
 
 
 
 
 
 
 
 
 
 
 
 
 
 
 
 
 
 
 
 
 
 
 
 
 
 
 
 
 
 
 
 
 
 
 
 
 
 
 
 
 
 
 
 
 
 
 
 
 
 
 
 
 
 
 
 
 
 
 
 
 
 
 
 
 
 
 
 
 
 
 
 
 
 
 
 
 
 
 
 
 
 
 
 
 
 
 
 
 
 
 
 
 
 
 
 
 
 
 
 
 
 
 
 
 
 
 
 
 
 
 
 
 
 
 
 
 
 
 
 
 
 
 
 
 
 
 
 
 
 
 
 
 
 
 
 
 
 
 
 
 
 
 
 
 
 
 
 
 
 
 
 
 
 
 
 
 
 
 
 
 
 
 
 
 
 
 
 
 
 
 
 
 
 
 
 
 
 
 
 
 
 
 
 
 
 
 
 
 
 
 
 
 
 
 
 
 
 
 
 
 
 
 
 
 
 
 
 
 
 
 
 
 
 
 
 
 
 
 
 
 
 
 
 
 
 
 
 
 
 
 
 
 
 
 
 
 
 
 
 
 
 
 
 
 
 
 
 
 
 
 
 
 
 
 
 
 
 
 
 
 
 
 
 
 
 
 
 
 
 
 
 
 
 
 
 
 
 
 
